Circuit: * C:\users\vitor\Documents\Facul\AAM\teste_diferencial\Draft1.asc

Direct Newton iteration for .op point succeeded.

Date: Tue Sep 30 21:12:53 2025
Total elapsed time: 0.329 seconds.

tnom = 27
temp = 27
method = modified trap
totiter = 5435
traniter = 5417
tranpoints = 2278
accept = 2177
rejected = 101
matrix size = 50
fillins = 64
solver = Normal
Matrix Compiler1: 5.13 KB object code size  3.9/2.3/[2.3]
Matrix Compiler2: 5.04 KB object code size  2.4/2.5/[2.1]

